*TriStateBuffer
.INCLUDE C:\Users\swaro\Downloads\tsmc018.lib
* Be sure to include the above file. Otherwise LTSpice will simulate using default transistors. Not really useful for the assignment
Vdd 1 0 2.5
*Vdd 1 0 AC SINE(2.5 1m 100k)
* current reference decided after applying sweep.
Iref 2 0 86u
*Vin1 in 0 0
Vin1 in 0 AC SINE(1 0.1m 1000k)
*Vin2 5 0 AC SINE(1 0.1m 1000k)
Vin2 5 0 1
* W/L values of different transistors, decided after sweeping for maximum gain.
.param W1=2800n
.param W2=140000n
.param W3=280000n
.param W4=280000n
.param W5=9800n
.param W6=4900n
.param L=1400n
*.param I=86u
M1 2 2 1 1 CMOSP L=L W=W1
M2 3 2 1 1 CMOSP L=L W=W1
M3 6 in 3 1 CMOSP L=L W=W2
M4 7 5 3 1 CMOSP L=L W=W2
M5 8 2 6 1 CMOSP L=L W=W3
M6 9 2 7 1 CMOSP L=L W=W3
M7 8 8 10 0 CMOSN L=L W=W4
M8 9 8 11 0 CMOSN L=L W=W4
M9 10 10 0 0 CMOSN L=L W=W4
M10 11 10 0 0 CMOSN L=L W=W4
M11 12 12 1 1 CMOSP L=L W=W5
M12 out 12 1 1 CMOSP L=L W=W5
M13 12 8 0 0 CMOSN L=L W=W6
M14 out 9 0 0 CMOSN L=L W=W6
CL out 0 500f
CC 14 13 300f
R2 9 14 20k
*. All sweeping ranges applied:
*.step param R6 1 5 1
*.step param R5 2 100 1
*.step param R1 2 50 8
*.step param R2 500 1000 10
*.step param I 90u 120u .5u
*.step param R3 1 500 20
*.step param R4 2 500 20
*.step param Vb 0.1 2 0.1
*.step param L 350n 700n 10n
*.op
*.ac dec 1000 1 1g
*.temp 0
*.temp 27
*.temp 100
*.tran 0 500u 5u
.dc Vin1 0 2.5 0.1
.end
